30
# CELL(abcABC):    9.58988     9.58988    25.88886    90.00002    89.99998   120.00001  Step:           0  Bead:       0 momenta{atomic_unit}  cell{atomic_unit}
      Nb -2.13586e+01  2.31654e+01 -2.66315e+01
      Nb -1.65438e+01  5.00181e+01 -1.42051e+01
      Nb  1.28089e+01  7.03381e+00  4.18271e+00
      Nb  4.07852e+01  1.13019e+01 -3.40487e+01
      Nb -6.02675e+00 -1.76420e+01 -2.23076e+01
      Nb  3.87267e+01  3.99015e-01  2.66143e+01
      Li  6.93567e+00 -9.76522e+00  2.19669e+00
      Li -1.74027e+01 -7.41867e+00  1.06200e+01
      Li  1.68566e+01 -5.56958e+00  1.15068e+01
      Li -3.19330e+00  1.62466e+01  8.84135e+00
      Li -2.88746e+00 -7.43388e+00  6.52194e-01
      Li  3.82086e+00 -6.16537e+00  4.89323e-01
       O -1.05110e+00 -8.19864e+00  8.04869e+00
       O -1.56111e+00 -7.17227e+00  2.71210e+01
       O  1.95320e+00  9.12078e-01 -1.09403e+01
       O -5.50601e+00 -8.86059e-02  3.71521e+00
       O -6.63970e-01  2.26759e+01  9.64841e+00
       O -3.01076e+01 -8.63343e+00 -9.53925e+00
       O  6.85406e+00  2.18764e+01  6.01456e+00
       O  4.28828e-01  2.61589e+00  4.81203e+00
       O  1.51427e+00  7.07764e+00  5.87004e+00
       O -8.82329e+00 -1.77478e+01  6.43825e+00
       O -3.42583e+01 -1.74805e+01 -4.21447e+00
       O  2.01449e+01 -2.83609e+01  4.94874e+00
       O  4.33884e+00 -1.98247e+01  2.07698e-01
       O -3.04049e+01 -4.86339e-01 -1.73135e+01
       O  2.85676e+01  2.00659e+01 -2.20424e+00
       O  7.58538e+00 -1.09741e+01 -1.04958e+01
       O -7.43800e+00 -2.31032e+01 -2.88830e+00
       O -4.09419e+00  1.26764e+01  1.28608e+01
